LTspice 24.0.12 for Windows
Circuit: * C:\Users\orest\Documents\LTspice\Draft2.asc
Start Time: Fri Jan  3 18:30:04 2025
solver = Normal
Maximum thread count: 12
tnom = 27
temp = 27
method = modified trap
Direct Newton iteration for .op point succeeded.
Ignoring empty pin current: Ix(x1:vm)
Ignoring empty pin current: Ix(x1:vp)
Ignoring empty pin current: Ix(x1:vm)
Ignoring empty pin current: Ix(x1:vp)
Total elapsed time: 0.308 seconds.

